Version 4
SHEET 1 2616 680
WIRE 2048 -304 1456 -304
WIRE -192 -288 -256 -288
WIRE -160 -288 -192 -288
WIRE -112 -288 -160 -288
WIRE -64 -288 -112 -288
WIRE 32 -288 -64 -288
WIRE 2048 -288 2048 -304
WIRE -256 -272 -256 -288
WIRE -160 -272 -160 -288
WIRE 1456 -240 1456 -304
WIRE 1936 -240 1456 -240
WIRE 1456 -192 1456 -240
WIRE 1776 -192 1456 -192
WIRE -256 -176 -256 -192
WIRE -160 -176 -160 -208
WIRE -64 -144 -64 -288
WIRE 32 -144 -64 -144
WIRE 608 -144 576 -144
WIRE 656 -144 608 -144
WIRE 704 -144 656 -144
WIRE 768 -144 704 -144
WIRE 864 -144 768 -144
WIRE 912 -144 864 -144
WIRE 1008 -144 992 -144
WIRE 1040 -144 1008 -144
WIRE -64 -128 -64 -144
WIRE 704 -128 704 -144
WIRE 768 -128 768 -144
WIRE 864 -128 864 -144
WIRE 1008 -128 1008 -144
WIRE 1456 -128 1456 -192
WIRE 1456 -128 1008 -128
WIRE 1600 -128 1456 -128
WIRE 608 -64 608 -144
WIRE 608 -64 576 -64
WIRE 704 -48 704 -64
WIRE 768 -48 768 -64
WIRE 768 -48 704 -48
WIRE -64 -32 -64 -48
WIRE 32 -32 -64 -32
WIRE 768 -32 768 -48
WIRE 864 -32 864 -48
WIRE 1040 -32 1040 -64
WIRE 144 32 144 16
WIRE 144 32 80 32
WIRE 272 32 272 16
WIRE 368 32 368 16
WIRE 144 128 144 96
WIRE 368 128 368 112
WIRE -112 160 -112 -288
WIRE 496 160 496 16
WIRE 496 160 -112 160
WIRE 80 208 80 32
WIRE 656 240 656 -144
WIRE -192 272 -192 -288
WIRE -16 272 -192 272
WIRE -176 304 -320 304
WIRE -320 336 -320 304
WIRE -16 352 -16 272
WIRE -48 368 -96 368
WIRE 80 384 80 288
WIRE 80 384 16 384
WIRE 192 384 80 384
WIRE -176 400 -176 304
WIRE -48 400 -176 400
WIRE 192 400 192 384
WIRE -96 480 -96 368
WIRE 192 480 192 464
WIRE 192 480 -96 480
WIRE 656 480 656 320
WIRE 656 480 192 480
FLAG 272 32 0
FLAG -256 -288 IN
FLAG 368 128 0
FLAG 144 128 0
FLAG 768 -32 0
FLAG 864 -32 0
FLAG 864 -144 OUT
FLAG -256 -176 0
FLAG -160 -176 0
FLAG 1040 -32 0
FLAG 1600 -48 0
FLAG 1776 -112 0
FLAG 1936 -160 0
FLAG 2048 -208 0
FLAG -16 416 0
FLAG -320 416 0
SYMBOL voltage -256 -288 R0
WINDOW 123 24 60 Left 2
WINDOW 39 0 0 Left 2
SYMATTR InstName V1
SYMATTR Value 5
SYMBOL res -80 -144 R0
SYMATTR InstName R1
SYMATTR Value 200K
SYMBOL res 352 16 R0
SYMATTR InstName R4
SYMATTR Value 510
SYMBOL cap 128 32 R0
WINDOW 39 24 65 Left 2
WINDOW 3 39 36 Left 2
SYMATTR SpiceLine Rser=1 Rpar=39K
SYMATTR Value 10µ
SYMATTR InstName C1
SYMBOL cap 752 -128 R0
SYMATTR InstName C2
SYMATTR Value 10µ
SYMATTR SpiceLine Rser=10m
SYMBOL res 848 -144 R0
SYMATTR InstName Rload
SYMATTR Value 220
SYMBOL LT3042 272 -144 R0
SYMATTR InstName U1
SYMBOL cap -176 -272 R0
SYMATTR InstName C3
SYMATTR Value 4.7µ
SYMATTR SpiceLine Rser=3m
SYMBOL current 1040 -144 R0
WINDOW 123 0 0 Left 0
WINDOW 39 0 0 Left 0
SYMATTR InstName I1
SYMATTR Value PULSE(0 200u 0 10n 10n 500n 1u 100000)
SYMBOL res 1008 -160 R90
WINDOW 0 0 56 VBottom 2
WINDOW 3 32 56 VTop 2
SYMATTR InstName R5
SYMATTR Value 10
SYMBOL current 1600 -128 R0
WINDOW 123 0 0 Left 0
WINDOW 39 0 0 Left 0
SYMATTR InstName I2
SYMATTR Value PULSE(0 200u 0 10n 10n 5000n 10u 100000)
SYMBOL current 1776 -192 R0
WINDOW 123 0 0 Left 0
WINDOW 39 0 0 Left 0
SYMATTR InstName I3
SYMATTR Value PULSE(0 200u 0 10n 10n 50u 100u 100000)
SYMBOL current 1936 -240 R0
WINDOW 123 0 0 Left 0
WINDOW 39 0 0 Left 0
SYMATTR InstName I4
SYMATTR Value PULSE(0 200u 0 10n 10n 500u 1000u 100000)
SYMBOL current 2048 -288 R0
WINDOW 123 0 0 Left 0
WINDOW 39 0 0 Left 0
SYMATTR InstName I5
SYMATTR Value PULSE(0 200u 0 10n 10n 5m 10m 100000)
SYMBOL Opamps\\ADA4528-1 -16 320 R0
SYMATTR InstName U2
SYMBOL res 64 192 R0
SYMATTR InstName R2
SYMATTR Value 220
SYMBOL voltage -320 320 R0
WINDOW 123 0 0 Left 0
WINDOW 39 0 0 Left 0
SYMATTR InstName V2
SYMATTR Value 4.096
SYMBOL res 640 224 R0
SYMATTR InstName R3
SYMATTR Value 5k1
SYMBOL cap 176 400 R0
SYMATTR InstName C4
SYMATTR Value 100n
SYMBOL cap 688 -128 R0
SYMATTR InstName C5
SYMATTR Value 40µ
SYMATTR SpiceLine Rser=0.5
TEXT 808 104 Left 2 !.tran 0 3000m 10m startup
TEXT 312 -352 Bottom 2 ;LT3042 - 20V, 200mA, Ultralow Noise, Ultrahigh PSRR RF Linear Regulator\nLow Noise, High PSRR RF Linear Regulator\nInput: 3.8V to 20V       Output: 3.3V @ 200mA\n(Current limited internally by Vin to Vout differential, refer to datasheet)
